Circuit: * E:\Studia\S09 (07)\OpenLab\LTSpice\KostkaRel.asc

WARNING: Less than two connections to node NC_01.  This node is used by R:U1:OUT7:OUT.
WARNING: Less than two connections to node NC_02.  This node is used by R:U1:OUT8:OUT.
WARNING: Less than two connections to node NC_03.  This node is used by R:U1:OUT9:OUT.
WARNING: Less than two connections to node NC_04.  This node is used by R:U1:OUT59:OUT.
Direct Newton iteration failed to find .op point.  (Use ".option noopiter" to skip.)
Starting Gmin stepping
Gmin = 10
Gmin = 1.07374
Gmin = 0.115292
Gmin = 0.0123794
Gmin = 0.00132923
Gmin = 0.000142725
Gmin = 1.5325e-005
Gmin = 1.6455e-006
Gmin = 1.76685e-007
Gmin = 1.89714e-008
Gmin = 2.03704e-009
Gmin = 2.18725e-010
Gmin = 2.34854e-011
Gmin = 2.52173e-012
Gmin = 2.70769e-013
Gmin = 0
Gmin stepping succeeded in finding the operating point.

Ignoring empty pin current: Ix(u1:vdd)
Ignoring empty pin current: Ix(u1:vdd)

Date: Fri Nov 19 19:10:16 2021
Total elapsed time: 1.177 seconds.

tnom = 27
temp = 27
method = modified trap
totiter = 48259
traniter = 47869
tranpoints = 13361
accept = 10470
rejected = 2891
matrix size = 133
fillins = 14
solver = Normal
Thread vector: 13.7/5.5[4] 2.9/1.5[4] 13.9/1.6[4] 0.2/0.8[1]  2592/500
Matrix Compiler1: 4.63 KB object code size  1.1/0.6/[0.4]
Matrix Compiler2: 7.74 KB object code size  0.7/1.1/[0.4]

